tests/data/smart-ds/substations/p1uhs23_1247/p1uhs23_1247--p1udt21301/hc_pv_deployments/close/2/15/PVSystems.dss
// PV Scenario for 377.31348613163505 kW total size, Scenario type close, Sample 2 and penetration 15% (PV to load ratio) 
! =====================PV SCENARIO FILE==============================
New PVSystem.small_p1ulv22116_1_2_pv phases=1 bus1=p1ulv22116.1.2 kv=0.2402 irradiance=1 Pmpp=24.931 pctPmpp=100 kVA=24.931 conn=wye %cutin=0.1 %cutout=0.1 Vmaxpu=1.2
New PVSystem.small_p1ulv18941_1_2_pv phases=1 bus1=p1ulv18941.1.2 kv=0.2402 irradiance=1 Pmpp=22.217 pctPmpp=100 kVA=22.217 conn=wye %cutin=0.1 %cutout=0.1 Vmaxpu=1.2
New PVSystem.small_p1ulv58566_1_2_pv phases=1 bus1=p1ulv58566.1.2 kv=0.2402 irradiance=1 Pmpp=21.015 pctPmpp=100 kVA=21.015 conn=wye %cutin=0.1 %cutout=0.1 Vmaxpu=1.2
New PVSystem.small_p1ulv35483_1_2_pv phases=1 bus1=p1ulv35483.1.2 kv=0.2402 irradiance=1 Pmpp=49.881 pctPmpp=100 kVA=49.881 conn=wye %cutin=0.1 %cutout=0.1 Vmaxpu=1.2
New PVSystem.small_p1ulv17002_1_2_pv phases=1 bus1=p1ulv17002.1.2 kv=0.2402 irradiance=1 Pmpp=70.805 pctPmpp=100 kVA=70.805 conn=wye %cutin=0.1 %cutout=0.1 Vmaxpu=1.2
New PVSystem.small_p1ulv65457_1_2_pv phases=1 bus1=p1ulv65457.1.2 kv=0.2402 irradiance=1 Pmpp=21.224 pctPmpp=100 kVA=21.224 conn=wye %cutin=0.1 %cutout=0.1 Vmaxpu=1.2
New PVSystem.small_p1ulv2538_1_2_pv phases=1 bus1=p1ulv2538.1.2 kv=0.2402 irradiance=1 Pmpp=23.059 pctPmpp=100 kVA=23.059 conn=wye %cutin=0.1 %cutout=0.1 Vmaxpu=1.2
New PVSystem.small_p1ulv32242_1_2_pv phases=1 bus1=p1ulv32242.1.2 kv=0.2402 irradiance=1 Pmpp=20.882 pctPmpp=100 kVA=20.882 conn=wye %cutin=0.1 %cutout=0.1 Vmaxpu=1.2
New PVSystem.small_p1ulv5055_1_2_pv phases=1 bus1=p1ulv5055.1.2 kv=0.2402 irradiance=1 Pmpp=36.944 pctPmpp=100 kVA=36.944 conn=wye %cutin=0.1 %cutout=0.1 Vmaxpu=1.2
New PVSystem.small_p1ulv12590_1_2_pv phases=1 bus1=p1ulv12590.1.2 kv=0.2402 irradiance=1 Pmpp=44.969 pctPmpp=100 kVA=44.969 conn=wye %cutin=0.1 %cutout=0.1 Vmaxpu=1.2
New PVSystem.small_p1ulv43670_1_2_pv phases=1 bus1=p1ulv43670.1.2 kv=0.2402 irradiance=1 Pmpp=12.892 pctPmpp=100 kVA=12.892 conn=wye %cutin=0.1 %cutout=0.1 Vmaxpu=1.2
New PVSystem.small_p1ulv9482_1_2_pv phases=1 bus1=p1ulv9482.1.2 kv=0.2402 irradiance=1 Pmpp=25.615 pctPmpp=100 kVA=25.615 conn=wye %cutin=0.1 %cutout=0.1 Vmaxpu=1.2
New PVSystem.small_p1ulv28507_1_2_pv phases=1 bus1=p1ulv28507.1.2 kv=0.2402 irradiance=1 Pmpp=2.879 pctPmpp=100 kVA=2.879 conn=wye %cutin=0.1 %cutout=0.1 Vmaxpu=1.2
